data/sourcebus_22000.trafo_75612682_75612682/LineCodes.dss
New Linecode.1P_Code4 units=km nphases=1 R1=0.7839 R0=0.7839 X1=0.0915 X0=0.0915 BaseFreq=50
New Linecode.1P_Code5 units=km nphases=1 R1=1.247 R0=1.247 X1=0.2494 X0=0.2494 BaseFreq=50
New Linecode.1P_OH_Code1 units=km nphases=1 R1=0.3751 R0=3751 X1=0.3601 X0=0.3601  BaseFreq=50
New Linecode.2P_Code6 units=km nphases=2 R1=1.247 R0=(4 1.247 *) X1=0.2494 X0=(4 0.2494 *)  BaseFreq=50
New Linecode.3P_Code2 units=km nphases=3 R1=1.247 R0=(4 1.247 *) X1=0.2494 X0=(4 0.2494 *)  BaseFreq=50
New Linecode.3P_Code7 units=km nphases=3 R1=0.7839 R0=(4 0.7839 *) X1=0.0915 X0=(4 0.0915 *)  BaseFreq=50
New Linecode.3P_OH_Code0 units=km nphases=3 R1=0.3751 R0=(4 0.3751 *) X1=0.3601 X0=(4 0.3601 *)  BaseFreq=50
New Linecode.3P_OH_Code3 units=km nphases=3 R1=0.27 R0=(4 0.27 *) X1=0.3619 X0=(4 0.3619 *)  BaseFreq=50
New Linecode.3P_OH_Code8 units=km nphases=3 R1=0.7868 R0=(4 0.7868 *) X1=0.399 X0=(4 0.399 *)  BaseFreq=50
